<?xml version="1.0" encoding="UTF-8"?>

<!-- generated on 2023-04-07 11:06:47 by Eclipse SUMO netedit Version 1.16.0
<configuration xmlns:xsi="http://www.w3.org/2001/XMLSchema-instance" xsi:noNamespaceSchemaLocation="http://sumo.dlr.de/xsd/netconvertConfiguration.xsd">

    <input>
        <sumo-net-file value="C:\Users\Chinthaka Jayaweera\Desktop\invarient_trading\01_Entry_project\deep_iql\data_collection\sumo_circuler_net\demo1.net.xml"/>
    </input>

    <output>
        <output-file value="C:\Users\Chinthaka Jayaweera\Desktop\invarient_trading\01_Entry_project\deep_iql\data_collection\sumo_circuler_net\demo1.net.xml"/>
    </output>

    <processing>
        <offset.disable-normalization value="true"/>
    </processing>

    <junctions>
        <no-turnarounds value="true"/>
    </junctions>

    <netedit>
        <new-network value="false"/>
    </netedit>

</configuration>
-->

<net version="1.16" junctionCornerDetail="5" limitTurnSpeed="5.50" xmlns:xsi="http://www.w3.org/2001/XMLSchema-instance" xsi:noNamespaceSchemaLocation="http://sumo.dlr.de/xsd/net_file.xsd">

    <location netOffset="0.00,0.00" convBoundary="-94.76,-207.91,733.43,336.27" origBoundary="10000000000.00,10000000000.00,-10000000000.00,-10000000000.00" projParameter="!"/>

    <edge id=":J1_0" function="internal">
        <lane id=":J1_0_0" index="0" speed="4.17" length="1.29" shape="-86.26,58.57 -86.28,58.90 -86.23,59.21 -86.11,59.51 -85.93,59.78"/>
        <lane id=":J1_0_1" index="1" speed="6.59" length="3.88" shape="-89.43,58.12 -89.48,59.11 -89.33,60.05 -88.99,60.93 -88.45,61.76"/>
        <lane id=":J1_0_2" index="2" speed="8.33" length="6.47" shape="-92.60,57.66 -92.68,59.31 -92.43,60.88 -91.86,62.36 -90.96,63.74"/>
    </edge>
    <edge id=":J10_0" function="internal">
        <lane id=":J10_0_0" index="0" speed="4.16" length="1.31" shape="-69.74,-53.46 -70.00,-53.24 -70.20,-52.99 -70.33,-52.70 -70.41,-52.37"/>
        <lane id=":J10_0_1" index="1" speed="6.57" length="3.94" shape="-71.57,-56.09 -72.34,-55.44 -72.93,-54.68 -73.34,-53.81 -73.58,-52.83"/>
        <lane id=":J10_0_2" index="2" speed="8.31" length="6.57" shape="-73.40,-58.72 -74.68,-57.63 -75.66,-56.36 -76.35,-54.91 -76.75,-53.28"/>
    </edge>
    <edge id=":J2_0" function="internal">
        <lane id=":J2_0_0" index="0" speed="4.30" length="3.50" shape="98.47,293.96 98.69,294.23 98.87,294.38 99.10,294.47 99.43,294.55"/>
        <lane id=":J2_0_1" index="1" speed="6.83" length="3.50" shape="95.96,295.94 96.61,296.73 97.17,297.20 97.84,297.47 98.84,297.69"/>
        <lane id=":J2_0_2" index="2" speed="8.64" length="3.50" shape="93.44,297.92 94.54,299.24 95.46,300.01 96.58,300.47 98.25,300.84"/>
    </edge>
    <edge id=":J3_0" function="internal">
        <lane id=":J3_0_0" index="0" speed="13.89" length="1.62" shape="278.60,328.11 278.76,328.14 278.87,328.15 278.98,328.14 279.14,328.12"/>
        <lane id=":J3_0_1" index="1" speed="11.17" length="1.62" shape="278.01,331.26 278.49,331.34 278.81,331.37 279.14,331.35 279.62,331.28"/>
        <lane id=":J3_0_2" index="2" speed="13.89" length="1.62" shape="277.42,334.40 278.21,334.54 278.76,334.59 279.31,334.56 280.10,334.45"/>
    </edge>
    <edge id=":J4_0" function="internal">
        <lane id=":J4_0_0" index="0" speed="4.40" length="3.15" shape="543.77,288.00 544.07,287.94 544.27,287.87 544.45,287.75 544.67,287.53"/>
        <lane id=":J4_0_1" index="1" speed="7.02" length="3.15" shape="544.25,291.16 545.16,291.00 545.77,290.79 546.30,290.41 546.96,289.77"/>
        <lane id=":J4_0_2" index="2" speed="8.90" length="3.15" shape="544.73,294.32 546.24,294.06 547.27,293.70 548.15,293.08 549.25,292.00"/>
    </edge>
    <edge id=":J5_0" function="internal">
        <lane id=":J5_0_0" index="0" speed="4.28" length="3.56" shape="718.82,109.12 719.06,108.86 719.19,108.66 719.25,108.42 719.28,108.07"/>
        <lane id=":J5_0_1" index="1" speed="6.80" length="3.56" shape="721.11,111.36 721.82,110.59 722.22,109.96 722.40,109.25 722.47,108.21"/>
        <lane id=":J5_0_2" index="2" speed="8.61" length="3.56" shape="723.40,113.59 724.58,112.31 725.24,111.27 725.55,110.08 725.67,108.35"/>
    </edge>
    <edge id=":J6_0" function="internal">
        <lane id=":J6_0_0" index="0" speed="4.18" length="1.28" shape="725.27,-31.08 725.25,-31.40 725.17,-31.71 725.03,-31.99 724.83,-32.24"/>
        <lane id=":J6_0_1" index="1" speed="6.61" length="3.84" shape="728.46,-30.94 728.42,-31.92 728.18,-32.83 727.76,-33.67 727.16,-34.44"/>
        <lane id=":J6_0_2" index="2" speed="8.36" length="6.40" shape="731.66,-30.80 731.58,-32.43 731.19,-33.95 730.49,-35.35 729.49,-36.64"/>
    </edge>
    <edge id=":J7_0" function="internal">
        <lane id=":J7_0_0" index="0" speed="4.30" length="3.49" shape="590.51,-174.52 590.27,-174.76 590.07,-174.90 589.84,-174.97 589.50,-175.02"/>
        <lane id=":J7_0_1" index="1" speed="6.83" length="3.49" shape="592.84,-176.72 592.11,-177.44 591.52,-177.86 590.83,-178.07 589.82,-178.20"/>
        <lane id=":J7_0_2" index="2" speed="8.65" length="3.49" shape="595.16,-178.92 593.96,-180.12 592.97,-180.81 591.82,-181.17 590.13,-181.39"/>
    </edge>
    <edge id=":J8_0" function="internal">
        <lane id=":J8_0_0" index="0" speed="13.89" length="1.48" shape="337.78,-199.81 337.63,-199.82 337.53,-199.82 337.43,-199.81 337.29,-199.78"/>
        <lane id=":J8_0_1" index="1" speed="13.66" length="1.48" shape="338.09,-202.99 337.66,-203.03 337.36,-203.04 337.06,-203.00 336.63,-202.91"/>
        <lane id=":J8_0_2" index="2" speed="13.89" length="1.48" shape="338.41,-206.18 337.68,-206.24 337.18,-206.25 336.68,-206.19 335.97,-206.04"/>
    </edge>
    <edge id=":J9_0" function="internal">
        <lane id=":J9_0_0" index="0" speed="13.89" length="1.93" shape="55.17,-140.19 54.99,-140.14 54.86,-140.10 54.75,-140.04 54.59,-139.93"/>
        <lane id=":J9_0_1" index="1" speed="9.02" length="1.93" shape="54.51,-143.32 53.96,-143.19 53.58,-143.07 53.24,-142.88 52.76,-142.56"/>
        <lane id=":J9_0_2" index="2" speed="11.52" length="1.93" shape="53.85,-146.45 52.92,-146.24 52.30,-146.03 51.72,-145.72 50.94,-145.19"/>
    </edge>

    <edge id="E0" from="J1" to="J2" priority="-1">
        <lane id="E0_0" index="0" speed="13.89" length="298.07" shape="-85.93,59.78 98.47,293.96"/>
        <lane id="E0_1" index="1" speed="13.89" length="298.07" shape="-88.45,61.76 95.96,295.94"/>
        <lane id="E0_2" index="2" speed="13.89" length="298.07" shape="-90.96,63.74 93.44,297.92"/>
    </edge>
    <edge id="E1" from="J2" to="J3" priority="-1">
        <lane id="E1_0" index="0" speed="13.89" length="182.29" shape="99.43,294.55 278.60,328.11"/>
        <lane id="E1_1" index="1" speed="13.89" length="182.29" shape="98.84,297.69 278.01,331.26"/>
        <lane id="E1_2" index="2" speed="13.89" length="182.29" shape="98.25,300.84 277.42,334.40"/>
    </edge>
    <edge id="E2" from="J3" to="J4" priority="-1">
        <lane id="E2_0" index="0" speed="13.89" length="267.65" shape="279.14,328.12 543.77,288.00"/>
        <lane id="E2_1" index="1" speed="13.89" length="267.65" shape="279.62,331.28 544.25,291.16"/>
        <lane id="E2_2" index="2" speed="13.89" length="267.65" shape="280.10,334.45 544.73,294.32"/>
    </edge>
    <edge id="E3" from="J4" to="J5" priority="-1">
        <lane id="E3_0" index="0" speed="13.89" length="249.32" shape="544.67,287.53 718.82,109.12"/>
        <lane id="E3_1" index="1" speed="13.89" length="249.32" shape="546.96,289.77 721.11,111.36"/>
        <lane id="E3_2" index="2" speed="13.89" length="249.32" shape="549.25,292.00 723.40,113.59"/>
    </edge>
    <edge id="E4" from="J5" to="J6" priority="-1">
        <lane id="E4_0" index="0" speed="13.89" length="139.28" shape="719.28,108.07 725.27,-31.08"/>
        <lane id="E4_1" index="1" speed="13.89" length="139.28" shape="722.47,108.21 728.46,-30.94"/>
        <lane id="E4_2" index="2" speed="13.89" length="139.28" shape="725.67,108.35 731.66,-30.80"/>
    </edge>
    <edge id="E5" from="J6" to="J7" priority="-1">
        <lane id="E5_0" index="0" speed="13.89" length="195.67" shape="724.83,-32.24 590.51,-174.52"/>
        <lane id="E5_1" index="1" speed="13.89" length="195.67" shape="727.16,-34.44 592.84,-176.72"/>
        <lane id="E5_2" index="2" speed="13.89" length="195.67" shape="729.49,-36.64 595.16,-178.92"/>
    </edge>
    <edge id="E6" from="J7" to="J8" priority="-1">
        <lane id="E6_0" index="0" speed="13.89" length="252.94" shape="589.50,-175.02 337.78,-199.81"/>
        <lane id="E6_1" index="1" speed="13.89" length="252.94" shape="589.82,-178.20 338.09,-202.99"/>
        <lane id="E6_2" index="2" speed="13.89" length="252.94" shape="590.13,-181.39 338.41,-206.18"/>
    </edge>
    <edge id="E7" from="J8" to="J9" priority="-1">
        <lane id="E7_0" index="0" speed="13.89" length="288.34" shape="337.29,-199.78 55.17,-140.19"/>
        <lane id="E7_1" index="1" speed="13.89" length="288.34" shape="336.63,-202.91 54.51,-143.32"/>
        <lane id="E7_2" index="2" speed="13.89" length="288.34" shape="335.97,-206.04 53.85,-146.45"/>
    </edge>
    <edge id="E8" from="J9" to="J10" priority="-1">
        <lane id="E8_0" index="0" speed="13.89" length="151.45" shape="54.59,-139.93 -69.74,-53.46"/>
        <lane id="E8_1" index="1" speed="13.89" length="151.45" shape="52.76,-142.56 -71.57,-56.09"/>
        <lane id="E8_2" index="2" speed="13.89" length="151.45" shape="50.94,-145.19 -73.40,-58.72"/>
    </edge>
    <edge id="E9" from="J10" to="J1" priority="-1">
        <lane id="E9_0" index="0" speed="13.89" length="112.07" shape="-70.41,-52.37 -86.26,58.57"/>
        <lane id="E9_1" index="1" speed="13.89" length="112.07" shape="-73.58,-52.83 -89.43,58.12"/>
        <lane id="E9_2" index="2" speed="13.89" length="112.07" shape="-76.75,-53.28 -92.60,57.66"/>
    </edge>

    <junction id="J1" type="priority" x="-94.76" y="61.51" incLanes="E9_0 E9_1 E9_2" intLanes=":J1_0_0 :J1_0_1 :J1_0_2" shape="-92.22,64.73 -84.68,58.79 -94.18,57.44 -94.22,60.06 -93.98,61.30 -93.57,62.49 -92.98,63.63">
        <request index="0" response="000" foes="000" cont="0"/>
        <request index="1" response="000" foes="000" cont="0"/>
        <request index="2" response="000" foes="000" cont="0"/>
    </junction>
    <junction id="J10" type="priority" x="-77.74" y="-57.64" incLanes="E8_0 E8_1 E8_2" intLanes=":J10_0_0 :J10_0_1 :J10_0_2" shape="-68.83,-52.15 -74.31,-60.03 -76.28,-58.24 -77.03,-57.20 -77.62,-56.07 -78.06,-54.84 -78.33,-53.50">
        <request index="0" response="000" foes="000" cont="0"/>
        <request index="1" response="000" foes="000" cont="0"/>
        <request index="2" response="000" foes="000" cont="0"/>
    </junction>
    <junction id="J2" type="priority" x="94.42" y="301.75" incLanes="E0_0 E0_1 E0_2" intLanes=":J2_0_0 :J2_0_1 :J2_0_2" shape="97.96,302.41 99.73,292.97 92.18,298.91 93.87,300.86 94.61,301.42 95.45,301.82 96.52,302.12">
        <request index="0" response="000" foes="000" cont="0"/>
        <request index="1" response="000" foes="000" cont="0"/>
        <request index="2" response="000" foes="000" cont="0"/>
    </junction>
    <junction id="J3" type="priority" x="278.73" y="336.27" incLanes="E1_0 E1_1 E1_2" intLanes=":J3_0_0 :J3_0_1 :J3_0_2" shape="280.34,336.03 278.90,326.54 277.13,335.97 278.31,336.17 278.73,336.20 279.15,336.19 279.66,336.13">
        <request index="0" response="000" foes="000" cont="0"/>
        <request index="1" response="000" foes="000" cont="0"/>
        <request index="2" response="000" foes="000" cont="0"/>
    </junction>
    <junction id="J4" type="priority" x="548.15" y="295.42" incLanes="E2_0 E2_1 E2_2" intLanes=":J4_0_0 :J4_0_1 :J4_0_2" shape="550.40,293.12 543.53,286.41 544.97,295.91 547.24,295.47 548.01,295.16 548.71,294.71 549.46,294.05">
        <request index="0" response="000" foes="000" cont="0"/>
        <request index="1" response="000" foes="000" cont="0"/>
        <request index="2" response="000" foes="000" cont="0"/>
    </junction>
    <junction id="J5" type="priority" x="727.11" y="112.08" incLanes="E3_0 E3_1 E3_2" intLanes=":J5_0_0 :J5_0_1 :J5_0_2" shape="727.27,108.42 717.68,108.00 724.55,114.71 726.29,112.75 726.75,111.93 727.03,111.02 727.18,109.90">
        <request index="0" response="000" foes="000" cont="0"/>
        <request index="1" response="000" foes="000" cont="0"/>
        <request index="2" response="000" foes="000" cont="0"/>
    </junction>
    <junction id="J6" type="priority" x="733.43" y="-34.79" incLanes="E4_0 E4_1 E4_2" intLanes=":J6_0_0 :J6_0_1 :J6_0_2" shape="730.65,-37.74 723.67,-31.15 733.26,-30.73 733.05,-33.31 732.69,-34.51 732.18,-35.65 731.50,-36.72">
        <request index="0" response="000" foes="000" cont="0"/>
        <request index="1" response="000" foes="000" cont="0"/>
        <request index="2" response="000" foes="000" cont="0"/>
    </junction>
    <junction id="J7" type="priority" x="593.86" y="-182.63" incLanes="E5_0 E5_1 E5_2" intLanes=":J7_0_0 :J7_0_1 :J7_0_2" shape="589.35,-173.42 596.33,-180.01 594.48,-181.80 593.70,-182.29 592.83,-182.61 591.74,-182.81 590.29,-182.98">
        <request index="0" response="000" foes="000" cont="0"/>
        <request index="1" response="000" foes="000" cont="0"/>
        <request index="2" response="000" foes="000" cont="0"/>
    </junction>
    <junction id="J8" type="priority" x="337.09" y="-207.91" incLanes="E6_0 E6_1 E6_2" intLanes=":J8_0_0 :J8_0_1 :J8_0_2" shape="337.62,-198.21 338.56,-207.77 337.47,-207.86 337.09,-207.86 336.71,-207.82 336.25,-207.73 335.64,-207.61">
        <request index="0" response="000" foes="000" cont="0"/>
        <request index="1" response="000" foes="000" cont="0"/>
        <request index="2" response="000" foes="000" cont="0"/>
    </junction>
    <junction id="J9" type="priority" x="51.62" y="-147.61" incLanes="E7_0 E7_1 E7_2" intLanes=":J9_0_0 :J9_0_1 :J9_0_2" shape="55.50,-138.62 53.52,-148.01 52.13,-147.69 51.66,-147.52 51.21,-147.29 50.70,-146.96 50.02,-146.50">
        <request index="0" response="000" foes="000" cont="0"/>
        <request index="1" response="000" foes="000" cont="0"/>
        <request index="2" response="000" foes="000" cont="0"/>
    </junction>

    <connection from="E0" to="E1" fromLane="0" toLane="0" via=":J2_0_0" dir="s" state="M"/>
    <connection from="E0" to="E1" fromLane="1" toLane="1" via=":J2_0_1" dir="s" state="M"/>
    <connection from="E0" to="E1" fromLane="2" toLane="2" via=":J2_0_2" dir="s" state="M"/>
    <connection from="E1" to="E2" fromLane="0" toLane="0" via=":J3_0_0" dir="s" state="M"/>
    <connection from="E1" to="E2" fromLane="1" toLane="1" via=":J3_0_1" dir="s" state="M"/>
    <connection from="E1" to="E2" fromLane="2" toLane="2" via=":J3_0_2" dir="s" state="M"/>
    <connection from="E2" to="E3" fromLane="0" toLane="0" via=":J4_0_0" dir="s" state="M"/>
    <connection from="E2" to="E3" fromLane="1" toLane="1" via=":J4_0_1" dir="s" state="M"/>
    <connection from="E2" to="E3" fromLane="2" toLane="2" via=":J4_0_2" dir="s" state="M"/>
    <connection from="E3" to="E4" fromLane="0" toLane="0" via=":J5_0_0" dir="s" state="M"/>
    <connection from="E3" to="E4" fromLane="1" toLane="1" via=":J5_0_1" dir="s" state="M"/>
    <connection from="E3" to="E4" fromLane="2" toLane="2" via=":J5_0_2" dir="s" state="M"/>
    <connection from="E4" to="E5" fromLane="0" toLane="0" via=":J6_0_0" dir="r" state="M"/>
    <connection from="E4" to="E5" fromLane="1" toLane="1" via=":J6_0_1" dir="r" state="M"/>
    <connection from="E4" to="E5" fromLane="2" toLane="2" via=":J6_0_2" dir="r" state="M"/>
    <connection from="E5" to="E6" fromLane="0" toLane="0" via=":J7_0_0" dir="s" state="M"/>
    <connection from="E5" to="E6" fromLane="1" toLane="1" via=":J7_0_1" dir="s" state="M"/>
    <connection from="E5" to="E6" fromLane="2" toLane="2" via=":J7_0_2" dir="s" state="M"/>
    <connection from="E6" to="E7" fromLane="0" toLane="0" via=":J8_0_0" dir="s" state="M"/>
    <connection from="E6" to="E7" fromLane="1" toLane="1" via=":J8_0_1" dir="s" state="M"/>
    <connection from="E6" to="E7" fromLane="2" toLane="2" via=":J8_0_2" dir="s" state="M"/>
    <connection from="E7" to="E8" fromLane="0" toLane="0" via=":J9_0_0" dir="s" state="M"/>
    <connection from="E7" to="E8" fromLane="1" toLane="1" via=":J9_0_1" dir="s" state="M"/>
    <connection from="E7" to="E8" fromLane="2" toLane="2" via=":J9_0_2" dir="s" state="M"/>
    <connection from="E8" to="E9" fromLane="0" toLane="0" via=":J10_0_0" dir="r" state="M"/>
    <connection from="E8" to="E9" fromLane="1" toLane="1" via=":J10_0_1" dir="r" state="M"/>
    <connection from="E8" to="E9" fromLane="2" toLane="2" via=":J10_0_2" dir="r" state="M"/>
    <connection from="E9" to="E0" fromLane="0" toLane="0" via=":J1_0_0" dir="r" state="M"/>
    <connection from="E9" to="E0" fromLane="1" toLane="1" via=":J1_0_1" dir="r" state="M"/>
    <connection from="E9" to="E0" fromLane="2" toLane="2" via=":J1_0_2" dir="r" state="M"/>

    <connection from=":J1_0" to="E0" fromLane="0" toLane="0" dir="r" state="M"/>
    <connection from=":J1_0" to="E0" fromLane="1" toLane="1" dir="r" state="M"/>
    <connection from=":J1_0" to="E0" fromLane="2" toLane="2" dir="r" state="M"/>
    <connection from=":J10_0" to="E9" fromLane="0" toLane="0" dir="r" state="M"/>
    <connection from=":J10_0" to="E9" fromLane="1" toLane="1" dir="r" state="M"/>
    <connection from=":J10_0" to="E9" fromLane="2" toLane="2" dir="r" state="M"/>
    <connection from=":J2_0" to="E1" fromLane="0" toLane="0" dir="s" state="M"/>
    <connection from=":J2_0" to="E1" fromLane="1" toLane="1" dir="s" state="M"/>
    <connection from=":J2_0" to="E1" fromLane="2" toLane="2" dir="s" state="M"/>
    <connection from=":J3_0" to="E2" fromLane="0" toLane="0" dir="s" state="M"/>
    <connection from=":J3_0" to="E2" fromLane="1" toLane="1" dir="s" state="M"/>
    <connection from=":J3_0" to="E2" fromLane="2" toLane="2" dir="s" state="M"/>
    <connection from=":J4_0" to="E3" fromLane="0" toLane="0" dir="s" state="M"/>
    <connection from=":J4_0" to="E3" fromLane="1" toLane="1" dir="s" state="M"/>
    <connection from=":J4_0" to="E3" fromLane="2" toLane="2" dir="s" state="M"/>
    <connection from=":J5_0" to="E4" fromLane="0" toLane="0" dir="s" state="M"/>
    <connection from=":J5_0" to="E4" fromLane="1" toLane="1" dir="s" state="M"/>
    <connection from=":J5_0" to="E4" fromLane="2" toLane="2" dir="s" state="M"/>
    <connection from=":J6_0" to="E5" fromLane="0" toLane="0" dir="r" state="M"/>
    <connection from=":J6_0" to="E5" fromLane="1" toLane="1" dir="r" state="M"/>
    <connection from=":J6_0" to="E5" fromLane="2" toLane="2" dir="r" state="M"/>
    <connection from=":J7_0" to="E6" fromLane="0" toLane="0" dir="s" state="M"/>
    <connection from=":J7_0" to="E6" fromLane="1" toLane="1" dir="s" state="M"/>
    <connection from=":J7_0" to="E6" fromLane="2" toLane="2" dir="s" state="M"/>
    <connection from=":J8_0" to="E7" fromLane="0" toLane="0" dir="s" state="M"/>
    <connection from=":J8_0" to="E7" fromLane="1" toLane="1" dir="s" state="M"/>
    <connection from=":J8_0" to="E7" fromLane="2" toLane="2" dir="s" state="M"/>
    <connection from=":J9_0" to="E8" fromLane="0" toLane="0" dir="s" state="M"/>
    <connection from=":J9_0" to="E8" fromLane="1" toLane="1" dir="s" state="M"/>
    <connection from=":J9_0" to="E8" fromLane="2" toLane="2" dir="s" state="M"/>

</net>
