<configuration>
    <step-length value="0.1"/>
    <input>
        <net-file value="circle.net.xml"/>
        <additional-files value="route.rou.xml"/>

    </input>
</configuration>


