<configuration>
    <input>
        <net-file value="circle.net.xml"/>
        <additional-files value="route.rou.xml"/>

    </input>
</configuration>
